-------------------------------------------------------
          Amber 16 PMEMD                              2016
          -------------------------------------------------------

  [-O]verwriting output

File Assignments:

 Here is the input file:

A NPT simulation for common production-level simulations
 &cntrl
    imin=0,        ! No minimization
    irest=1,       ! This IS a restart of an old MD simulation
    ntx=5,         ! So our inpcrd file has velocities

    ! Temperature control
    ntt=3,         ! Langevin dynamics
    gamma_ln=1.0,  ! Friction coefficient (ps^-1)
    temp0=310.15,   ! Target temperature

    ! Potential energy control
    cut=12.0,      ! Nonbonded cutoff, in Angstroms
    fswitch=10.0,  ! Force-based switching

    ! MD settings
    nstlim=25000,  ! 25K steps, 25 ps total
    dt=0.001,      ! time step (ps)

    ! SHAKE
    ntc=2,         ! Constrain bonds containing hydrogen
    ntf=2,         ! Do not calculate forces of bonds containing hydrogen

    ! Control how often information is printed
    ntpr=1000,     ! Print energies every 1000 steps
    ntwx=1000,     ! Print coordinates every 1000 steps to the trajectory
    ntwr=10000,    ! Print a restart file every 10K steps (can be less frequent
!   ntwv=-1,       ! Uncomment to also print velocities to trajectory
!   ntwf=-1,       ! Uncomment to also print forces to trajectory
    ntxo=2,        ! Write NetCDF format
    ioutfm=1,      ! Write NetCDF format (always do this!)

    ! Wrap coordinates when printing them to the same unit cell
    iwrap=0,

    ! Constant pressure control.
    barostat=2,    ! MC barostat... change to 1 for Berendsen
    ntp=1,         ! 1=isotropic, 2=anisotropic, 3=semi-isotropic w/ surften
    pres0=1.0,     ! Target external pressure, in bar

    ! Constant surface tension (needed for semi-isotropic scaling). Uncomment
    ! for this feature. csurften must be nonzero if ntp=3 above
    !csurften=3,    ! Interfaces in 1=yz plane, 2=xz plane, 3=xy plane
    !gamma_ten=0.0, ! Surface tension (dyne/cm). 0 gives pure semi-iso scaling
    !ninterface=2,  ! Number of interfaces (2 for bilayer)

    ! Restraint options
    ntr=1,         ! Positional restraints for proteins, sugars, ligands, and l
    !nmropt=1,      ! Dihedral restraints for sugars and lipids

    ! Set water atom/residue names for SETTLE recognition
    watnam='WAT',  ! Water residues are named WAT
    owtnm='O',     ! Water oxygens are named O
 /

 &ewald
    vdwmeth = 0,
 /

 &wt
    type='END'
 /
Protein posres
1.0
RES 1 3
END
END

Note: ig = -1. Setting random seed to   586596 based on wallclock time in
      microseconds.

--------------------------------------------------------------------------------
   1.  RESOURCE   USE:
--------------------------------------------------------------------------------

 getting box info from netcdf restart file
 NATOM  =   28162 NTYPES =      18 NBONH =   28075 MBONA  =      32
 NTHETH =    9420 MTHETA =      41 NPHIH =     112 MPHIA  =      63
 NHPARM =       0 NPARM  =       0 NNB   =   37780 NRES   =    9405
 NBONA  =      32 NTHETA =      41 NPHIA =      63 NUMBND =      21
 NUMANG =      41 NPTRA  =      72 NATYP =       1 NPHB   =       0
 IFBOX  =       1 NMXRS  =      26 IFCAP =       0 NEXTRA =       0
 NCOPY  =       0

     BOX TYPE: RECTILINEAR

--------------------------------------------------------------------------------
   2.  CONTROL  DATA  FOR  THE  RUN
--------------------------------------------------------------------------------

General flags:
     imin    =       0, nmropt  =       0

Nature and format of input:
     ntx     =       5, irest   =       1, ntrx    =       1

Nature and format of output:
     ntxo    =       2, ntpr    =    1000, ntrx    =       1, ntwr    =   10000
     iwrap   =       0, ntwx    =    1000, ntwv    =       0, ntwe    =       0
     ioutfm  =       1, ntwprt  =       0, idecomp =       0, rbornstat=      0

Potential function:
     ntf     =       2, ntb     =       2, igb     =       0, nsnb    =      25
     ipol    =       0, gbsa    =       0, iesp    =       0
     dielc   =   1.00000, cut     =  12.00000, intdiel =   1.00000

Frozen or restrained atoms:
     ibelly  =       0, ntr     =       1
     restraint_wt =   0.00000

Molecular dynamics:
     nstlim  =     25000, nscm    =         0, nrespa  =         1
     t       =   0.00000, dt      =   0.00100, vlimit  =  -1.00000

Langevin dynamics temperature regulation:
     ig      =  586596
     temp0   = 310.15000, tempi   =   0.00000, gamma_ln=   1.00000

Pressure regulation:
     ntp     =       1
     pres0   =   1.00000, comp    =  44.60000, taup    =   1.00000
     Monte-Carlo Barostat:
     mcbarint  =     100

SHAKE:
     ntc     =       2, jfastw  =       0
     tol     =   0.00001

Ewald parameters:
     verbose =       0, ew_type =       0, nbflag  =       1, use_pme =       1
     vdwmeth =       0, eedmeth =       1, netfrc  =       1
     Box X =   67.980   Box Y =   68.060   Box Z =   67.870
     Alpha =   90.000   Beta  =   90.000   Gamma =   90.000
     NFFT1 =   64       NFFT2 =   72       NFFT3 =   64
     Cutoff=   12.000   Tol   =0.100E-04
     Ewald Coefficient =  0.22664
     Interpolation order =    4

    LOADING THE CONSTRAINED ATOMS AS GROUPS

   5.  REFERENCE ATOM COORDINATES

    ----- READING GROUP     1; TITLE:
 Protein posres

     GROUP    1 HAS HARMONIC CONSTRAINTS     1.00000
 GRP    1 RES    1 TO     3
      Number of atoms in this group  =    66
    ----- END OF GROUP READ -----

--------------------------------------------------------------------------------
   3.  ATOMIC COORDINATES AND VELOCITIES
--------------------------------------------------------------------------------

 begin time read from input coords =    25.000 ps

 Number of triangulated 3-point waters found:     9347

     Sum of charges from parm topology file =   0.00000000
     Forcing neutrality...

--------------------------------------------------------------------------------
   4.  RESULTS
 NSTEP =     1000   TIME(PS) =      26.000  TEMP(K) =   315.26  PRESS =     0.0
 Etot   =    -76657.4650  EKtot   =     17670.3125  EPtot      =    -94327.7775
 BOND   =        17.1568  ANGLE   =        29.6984  DIHED      =        37.4008
 UB     =         3.5890  IMP     =         1.4187  CMAP       =        -4.3017
 1-4 NB =        16.3500  1-4 EEL =      -243.5419  VDWAALS    =     10164.1027
 EELEC  =   -104358.1749  EHBOND  =         0.0000  RESTRAINT  =         8.5246
 EAMBER (non-restraint)  =    -94336.3021
 EKCMT  =         0.0000  VIRIAL  =         0.0000  VOLUME     =    308344.2738
                                                    Density    =         0.9203
 ------------------------------------------------------------------------------

      A V E R A G E S   O V E R      25 S T E P S

 NSTEP =    25000   TIME(PS) =      50.000  TEMP(K) =   310.08  PRESS =     0.0
 Etot   =    -77307.8405  EKtot   =     17379.8462  EPtot      =    -94687.6868
 BOND   =        14.7520  ANGLE   =        29.2158  DIHED      =        33.9680
 UB     =         3.5884  IMP     =         1.7144  CMAP       =        -3.2205
 1-4 NB =        15.8106  1-4 EEL =      -244.7658  VDWAALS    =     10068.3906
 EELEC  =   -104616.4064  EHBOND  =         0.0000  RESTRAINT  =         9.2663
 EAMBER (non-restraint)  =    -94696.9531
 EKCMT  =         0.0000  VIRIAL  =         0.0000  VOLUME     =    292350.7516
                                                    Density    =         0.9714
 ------------------------------------------------------------------------------

      R M S  F L U C T U A T I O N S

 NSTEP =    25000   TIME(PS) =      50.000  TEMP(K) =     2.22  PRESS =     0.0
 Etot   =       324.1909  EKtot   =       124.6650  EPtot      =       282.8098
 BOND   =         2.8660  ANGLE   =         4.0781  DIHED      =         2.0227
 UB     =         0.7418  IMP     =         0.7971  CMAP       =         0.7624
 1-4 NB =         1.4570  1-4 EEL =         7.0319  VDWAALS    =       178.1107
 EELEC  =       316.7422  EHBOND  =         0.0000  RESTRAINT  =         2.0488
 EAMBER (non-restraint)  =       280.7610
 EKCMT  =         0.0000  VIRIAL  =         0.0000  VOLUME     =      7944.2631
                                                    Density    =         0.0260
 ------------------------------------------------------------------------------
